Examples/InverterModels/PVSystem2/InvControl2/MonitoredVoltage/Mon_voltage_MAX_Mix_ravg_sec8_VLN_Node.Txt

LINE-GROUND and LINE-LINE VOLTAGES BY BUS & NODE

Bus  Node    VLN (kV)   Angle      pu     Base kV    Node-Node   VLL (kV)  Angle      pu

A .. 1       8.1256 /_    4.5    1.0199    13.800        1-2     14.075 /_   34.5    1.0199
   - 2       8.1278 /_ -115.5    1.0201    13.800        2-3     14.075 /_  -85.5    1.0199
   - 3       8.1259 /_  124.5    1.0199    13.800        3-1     14.076 /_  154.5      1.02
B .. 1       8.1459 /_    6.0    1.0224    13.800        1-2     14.091 /_   35.8    1.0211
   - 2       8.1105 /_ -114.2     1.018    13.800        2-3     14.029 /_  -84.1    1.0166
   - 3       8.1008 /_  125.9    1.0167    13.800        3-1     14.068 /_  156.1    1.0194
C .. 1      0.28379 /_    6.0     1.024     0.480        1-2     0.4909 /_   35.9    1.0227
   - 2      0.28256 /_ -114.1    1.0196     0.480        2-3    0.48876 /_  -84.1    1.0183
   - 3      0.28222 /_  126.0    1.0184     0.480        3-1     0.4901 /_  156.1     1.021
